Version 4
SHEET 1 880 680
WIRE 0 -320 -64 -320
WIRE -64 -272 -64 -320
WIRE -112 -160 -320 -160
WIRE 0 -160 0 -320
WIRE 0 -160 -32 -160
WIRE 48 -160 0 -160
WIRE 48 -144 48 -160
WIRE 240 -144 48 -144
WIRE -112 -16 -128 -16
WIRE 240 -16 240 -144
WIRE 240 -16 -64 -16
WIRE -320 0 -320 -160
WIRE -128 0 -128 -16
WIRE -128 0 -320 0
WIRE -128 32 -336 32
WIRE 64 32 -48 32
WIRE 160 32 64 32
WIRE 160 48 160 32
WIRE 352 48 240 48
WIRE 576 48 352 48
WIRE -336 128 -336 32
WIRE 352 160 352 48
WIRE 576 160 576 48
WIRE 64 176 64 32
WIRE -336 352 -336 208
WIRE -112 352 -336 352
WIRE 64 352 64 240
WIRE 64 352 -112 352
WIRE 352 352 352 224
WIRE 352 352 64 352
WIRE 576 352 576 240
WIRE 576 352 352 352
WIRE -112 560 -112 352
WIRE -112 560 -544 560
FLAG -336 352 0
FLAG -64 -272 0
DATAFLAG 576 112 ""
DATAFLAG 576 272 ""
SYMBOL polcap 336 160 R0
WINDOW 3 24 56 Left 2
SYMATTR InstName C1
SYMATTR Value 100µ
SYMATTR Description Capacitor
SYMATTR Type cap
SYMATTR SpiceLine V=16 Irms=600m Rser=0.35 Lser=0
SYMBOL voltage -336 112 R0
WINDOW 123 0 0 Left 0
WINDOW 39 0 0 Left 0
SYMATTR InstName V1
SYMATTR Value 48
SYMBOL ind 144 64 R270
WINDOW 0 32 56 VTop 2
WINDOW 3 5 56 VBottom 2
SYMATTR InstName L1
SYMATTR Value 60µ
SYMBOL diode 80 240 R180
WINDOW 0 24 64 Left 2
WINDOW 3 24 0 Left 2
SYMATTR InstName D1
SYMBOL res 560 144 R0
SYMATTR InstName R1
SYMATTR Value 3
SYMBOL sw -32 32 R90
SYMATTR InstName S1
SYMATTR Value MYSW
SYMBOL voltage -128 -160 R270
WINDOW 0 32 56 VTop 2
WINDOW 3 -32 56 VBottom 2
WINDOW 123 0 0 Left 0
WINDOW 39 0 0 Left 0
SYMATTR InstName V2
SYMATTR Value PULSE(0 5 0 0 0 2.5u 10u)
TEXT -370 376 Left 2 !.tran 500m
TEXT -48 8 Left 2 !.model MYSW SW(Ron=1 Roff=1Meg Vt=.5 Vh=-.4)
